&wrfvar1
var4d=true,
var4d_lbc=false,
var4d_bin=3600,
/
&wrfvar2
/
&wrfvar3
ob_format=2,
/
&wrfvar4
use_synopobs=true,
use_shipsobs=true,
use_metarobs=true,
use_soundobs=true,
use_pilotobs=true,
use_airepobs=true,
use_geoamvobs=true,
use_polaramvobs=true,
use_bogusobs=true,
use_buoyobs=true,
use_profilerobs=true,
use_satemobs=true,
use_gpspwobs=true,
use_gpsrefobs=true,
use_qscatobs=true,
use_rainobs=false,
/
&wrfvar5
check_max_iv=true,
/
&wrfvar6
max_ext_its=1,
ntmax=50,
orthonorm_gradient=true,
/
&wrfvar7
cv_options=3,
/
&wrfvar8
/
&wrfvar9
/
&wrfvar10
test_transforms=false,
test_gradient=false,
/
&wrfvar11
cv_options_hum=1,
check_rh=0,
sfc_assi_options=1,
calculate_cg_cost_fn=true,
/
&wrfvar12
/
&wrfvar13
/
&wrfvar14
/
&wrfvar15
/
&wrfvar16
/
&wrfvar17
custom_sens=false,
max_cust_sens=1,
s_we_sens=5,
e_we_sens=5,
s_sn_sens=5,
e_sn_sens=5,
s_vert_sens=1,
e_vert_sens=1,
sens_type=0,
/
&wrfvar18
analysis_date="2008-06-15_00:00:00.0000",
/
&wrfvar19
/
&wrfvar20
/
&wrfvar21
time_window_min="2008-06-15_00:00:00.0000",
/
&wrfvar22
time_window_max="2008-06-15_03:00:00.0000",
/
&wrfvar23
/
&time_control
run_hours=3,
start_year=2008,
start_month=06,
start_day=15,
start_hour=00,
end_year=2008,
end_month=06,
end_day=15,
end_hour=03,
interval_seconds=10800,
input_from_file                     = .true., .true., .true., 
io_form_history                     = 2,
io_form_input                       = 2,
io_form_boundary                    = 2,
auxinput4_inname                    = "wrflowinp_d<domain>",
auxinput6_inname                    = 'wrfbiochemi_d01',
auxinput7_inname                    = 'wrffirechemi_d<domain>_<date>',
auxinput8_inname                    = 'wrfchemi_gocart_bg_d<domain>_<date>',
auxinput12_inname                   = 'wrf_chem_input',
auxinput4_interval                  = 360,
auxinput5_interval_m                =   60,   60,   60,
auxinput7_interval_m                =   60,   60,   60,
auxinput8_interval_m                = 1440, 1440, 1440,
frames_per_auxinput5                = 24,
frames_per_auxinput7                = 1,
frames_per_auxinput8                = 1,
io_form_auxinput2                   = 2,
io_form_auxinput4                   = 0,
io_form_auxinput5                   = 2,
io_form_auxinput6                   = 0,
io_form_auxinput7                   = 2,
io_form_auxinput8                   = 0,
io_form_auxinput12                  = 0,
checkpoint_interval=0,
debug_level=0,
/
&domains
time_step=60,
e_we=120,
e_sn=120,
e_vert=31,
p_top_requested=10000,
interp_type=1,
t_extrap_type=1,
dx=12000,
dy=12000,
smooth_option=0,
nproc_x=0,
hypsometric_opt=2,
/
&fdda
/
&dfi_control
/
&tc
/
&physics
mp_physics                          = 0,
ra_lw_physics                       = 5,
ra_sw_physics                       = 5,
radt                                = 30,
sf_sfclay_physics                   = 7,
sf_surface_physics                  = 0,
bl_pbl_physics                      = 7,
bldt                                = 0,
cu_physics                          = 0,
cudt                                = 1,
isfflx                              = 1,
ifsnow                              = 1,
icloud                              = 1,
surface_input_source                = 1,
num_soil_layers                     = 2,
mp_zero_out                         = 2,
sst_update                          = 0,
/
&scm
/
&dynamics
w_damping=1,
diff_opt=1,
km_opt=4,
damp_opt                            = 0,
zdamp                               = 5000.,
dampcoef                            = 0.01,
khdif                               = 0,
kvdif                               = 0,
smdiv                               = 0.1,
emdiv                               = 0.01,
epssm                               = 0.1,
time_step_sound=4,
base_temp=290.0,
use_baseparam_fr_nml=true,
h_mom_adv_order=5,
v_mom_adv_order=3,
h_sca_adv_order=5,
v_sca_adv_order=3,
non_hydrostatic=true,
moist_adv_opt=1,
scalar_adv_opt=1,
tke_adv_opt=2,
chem_adv_opt=2,
tracer_adv_opt=2,
use_input_w=true,
tracer_opt=0,
/
&bdy_control
spec_bdy_width                      = 5,
spec_zone                           = 1,
relax_zone                          = 4,
specified=true,
/

&grib2
/
&namelist_quilt
/
&perturbation
trajectory_io=true,
enable_identity=false,
jcdfi_use=false,
jcdfi_diag=0,
jcdfi_penalty=1000.0,
check_chem = false,
chem_ad_forcing=false,
chem_obs_type = 1,
calc_hx_only = true,
/

&chem
kemit                               = 19,
chem_opt                            = 300,
bioemdt                             = 30,
photdt                              = 30,
chemdt                              = 0,
io_style_emissions                  = 2,
emiss_inpt_opt                      = 1,          1,
emiss_opt                           = 98,         3,
chem_in_opt                         = 0,          0,
phot_opt                            = 0,          2,
gas_drydep_opt                      = 0,          1,
aer_drydep_opt                      = 0,          1,
bio_emiss_opt                       = 0,          0,
dust_opt                            = 0,
dmsemis_opt                         = 0,
seas_opt                            = 0,
gas_bc_opt                          = 1,          0,
gas_ic_opt                          = 1,          0,
aer_bc_opt                          = 1,          0,
aer_ic_opt                          = 1,          0,
gaschem_onoff                       = 0,          0,
aerchem_onoff                       = 1,          0,
wetscav_onoff                       = 0,          0,
cldchem_onoff                       = 0,          0,
vertmix_onoff                       = 0,          0,
chem_conv_tr                        = 0,          0,
biomass_burn_opt                    = 98,          1,
plumerisefire_frq                   = 60,        120,
have_bcs_chem                       = .false., .false.,
aer_ra_feedback                     = 0,
aer_op_opt                          = 0,
opt_pars_out                        = 0,
diagnostic_chem                     = 0,
num_ant_steps                       = 60,
num_bb_steps                        = 60,
scaleant_frq                        = 1440,
scalebb_frq                         = 1440,
scale_emiss_opt                     = 98,
scale_burn_opt                      = 98,
nta_chem_opt                        = 300,
ndepvel                             = 30,
num_ts                              = 500,
num_surf_obs                        = 100,
num_surf_hx                        = 1,
num_acft_obs                      = 100,
num_acft_hx                        = 6,
/
