 &time_control
 run_days                            = 0,
 run_hours                           = 0,
 run_minutes                         = 0,
 run_seconds                         = 0,
 start_year                          = 2008, 2008, 2008,
 start_month                         = 06,   06,   06,
 start_day                           = 22,   22,   22,
 start_hour                          = 00,   00,   00,
 start_minute                        = 00,   00,   00,
 start_second                        = 00,   00,   00,
 end_year                            = 2008, 2008, 2008,
 end_month                           = 06,   06,   06,
 end_day                             = 22,   22,   22,
 end_hour                            = 03,   03,   03,
 end_minute                          = 00,   06,   00,
 end_second                          = 00,   00,   00,
 history_interval                    = 60,   60,   60,
 interval_seconds                    = 10800,
 frames_per_outfile                  = 24,    1,    100,
 restart                             = .false.,
 input_from_file                     = .true., .true., .true., 
 restart_interval                    = 14400,
 io_form_history                     = 2,
 io_form_restart                     = 2,
 io_form_input                       = 2,
 io_form_boundary                    = 2,
 auxinput1_inname                    = "met_em.d<domain>.<date>"
 auxinput4_inname                    = "wrflowinp_d<domain>",
 auxinput6_inname                    = 'wrfbiochemi_d01',
 auxinput7_inname                    = 'wrffirechemi_d<domain>_<date>',
 auxinput8_inname                    = 'wrfchemi_gocart_bg_d<domain>_<date>',
 auxinput12_inname                   = 'wrf_chem_input',
 auxinput4_interval                  = 360,
 auxinput5_interval_m                =   60,   60,   60,
 auxinput7_interval_m                =   60,   60,   60,
 auxinput8_interval_m                = 1000000, 1000000, 1000000,
 auxinput8_begin_m              = 1000000, 1000000, 1000000,
 frames_per_auxinput4                = 1,
 frames_per_auxinput5                = 1,
 frames_per_auxinput7                = 1,
 frames_per_auxinput8                = 1,
 io_form_auxinput2                   = 2,
 io_form_auxinput4                   = 2,
 io_form_auxinput5                   = 2,
 io_form_auxinput6                   = 0,
 io_form_auxinput7                   = 2,
 io_form_auxinput8                   = 0,
 io_form_auxinput12                  = 2,
 debug_level                         =1,
 /
 iofields_filename                   = "plus.io_config",
 ignore_iofields_warning             = .true.,
 io_form_auxhist7                    = 2,
 io_form_auxhist8                    = 2,
 auxhist8_interval_h                 = 1,
 frames_per_auxhist8                 = 1,

 &domains
 time_step                           = 90,
 max_dom                             = 1,
 e_we                                = 80,    80,    80,
 e_sn                                = 80,     80,    80,
 e_vert                              = 31,     31,    31,
 p_top_requested                     = 5000,
 num_metgrid_levels                  = 30,
 num_metgrid_soil_levels             = 4,
 dx                                  = 18000, 18000, 18000,
 dy                                  = 18000, 18000, 18000,
 p_top_requested                     = 10000,
 grid_id                             = 1,     2,     3,
 parent_id                           = 0,     1,     2,
 i_parent_start                      = 0,     41,    17,
 j_parent_start                      = 0,     15,    33,
 parent_grid_ratio                   = 1,     3,     5,
 parent_time_step_ratio              = 1,     3,     5,
 feedback                            = 1,
 smooth_option                       = 0,
 hypsometric_opt                     = 2,
 /

 &physics
 mp_physics                          = 0,     3,     3,
 ra_lw_physics                       = 5,     1,     1,
 ra_sw_physics                       = 5,     1,     1,
 radt                                = 30,    30,    30,
 sf_sfclay_physics                   = 7,     1,     1,
 sf_surface_physics                  = 7,     1,     1,
 bl_pbl_physics                      = 7,     1,     1,
 bldt                                = 0.,    0.,   0.,
 cu_physics                          = 0,     1,     0,
 cudt                                = 0,     0,     0,
 isfflx                              = 1,
 ifsnow                              = 1,
 icloud                              = 1,
 surface_input_source                = 1,
 num_soil_layers                     = 2,
 mp_zero_out                         = 2,
 sst_update                          = 0,
 /

 &fdda
 /

 &dynamics
 dyn_opt                             = 102,
 diff_opt                            = 1,
 km_opt                              = 4,
 diff_6th_opt                        = 0,      2,      0,
 diff_6th_factor                     = 0.12,   0.12,   0.12,
 damp_opt                            = 0,
 base_temp                           = 290.
 zdamp                               = 5000.,  4000.,  4000.,
 dampcoef                            = 0.01,    0.2,    0.2,
 khdif                               = 0,      0,      0,
 kvdif                               = 0,      0,      0,
 smdiv                               = 0.1,    0.1,    0.1,
 emdiv                               = 0.01,   0.01,   0.01,
 epssm                               = 0.1,    0.1,    0.1,
 time_step_sound                     = 4,      4,      4,
 h_mom_adv_order                     = 5,      5,      5,
 v_mom_adv_order                     = 3,      3,      3,
 h_sca_adv_order                     = 5,      5,      5,
 v_sca_adv_order                     = 3,      3,      3,
 w_damping                           = 1,
 non_hydrostatic                     = .true.,.true., .true.,
 moist_adv_opt                       = 1,      1,      1,     
 scalar_adv_opt                      = 1,      1,      1,     
 tke_adv_opt                         = 2,      2,      1,     
 chem_adv_opt                        = 2,      2,      2,     
 tracer_adv_opt                      = 2,      2,      1,     
 momentum_adv_opt                    = 1,      1,      1,       
 sfs_opt                             = 0,
 tke_drag_coefficient       = 1,      1,      1,     
 m_opt                      = 0,      1,      1,     
 mix_full_fields            = .true., .true., .true.,
 mix_isotropic              = 0,      1,      1,     
 use_input_w                = .true.,
 tracer_opt                 = 0,
/

 &bdy_control
 spec_bdy_width                      = 5,
 spec_zone                           = 1,
 relax_zone                          = 4,
 specified                           = .true., .false.,.false.,
 nested                              = .false., .true., .true.,
 /

 &grib2
 /

 &namelist_quilt
 nio_tasks_per_group = 0,
 nio_groups = 1,
 /

 &perturbation
 trajectory_io=.true.,
 check_TL = .true.,
 check_AD = .true.,
 check_NL = .false.,
 check_u = .true.,
 check_v = .true.,
 check_w = .true.,
 check_ph = .true.,
 check_t = .true.,
 check_mu = .true.,
 check_moist = .true.,
 check_tracer = .true.,
 check_chem = .true.,
 check_scaleant = .true.,
 check_scalebb = .true.,
 tl_standalone = .false.,
 nl_pert       = 0.01,
 numer_vars    =16,17,
 max_numer     = 2,
 denom_vars    =1,4,8,16,17,33,40,
 max_denom     = 7,
 scenario_type = 2,
 jcdfi_use = .false.,
 jcdfi_diag = 0,
 /

 &chem
 kemit                               = 19,
 chem_opt                            = 300,
 bioemdt                             = 30,
 photdt                              = 30,
 chemdt                              = 1.50,
 io_style_emissions                  = 2,
 emiss_inpt_opt                      = 1,          1,
 emiss_opt                           = 98,         98,
 chem_in_opt                         = 1,          1,
 phot_opt                            = 0,          0,
 gas_drydep_opt                      = 1,          1,
 aer_drydep_opt                      = 1,          1,
 bio_emiss_opt                       = 1,          1,
 dust_opt                            = 0,
 dmsemis_opt                         = 0,
 seas_opt                            = 0,
 gas_bc_opt                          = 1,          0,
 gas_ic_opt                          = 1,          0,
 aer_bc_opt                          = 1,          0,
 aer_ic_opt                          = 1,          0,
 gaschem_onoff                       = 0,          0,
 aerchem_onoff                       = 1,          0,
 wetscav_onoff                       = 0,          0,
 cldchem_onoff                       = 0,          0,
 vertmix_onoff                       = 1,          0,
 chem_conv_tr                        = 0,          0,
 biomass_burn_opt                    = 98,          98,
 plumerisefire_frq                   = 60,        60,
 have_bcs_chem                       = .false., .false.,
 aer_ra_feedback                     = 0,
 aer_op_opt                          = 0,
 opt_pars_out                        = 0,
 diagnostic_chem                     = 0,
 num_ant_steps                       = 60,
 num_bb_steps                        = 60,
 scaleant_frq                        = 1440,
 scalebb_frq                         = 1440,
 scale_emiss_opt                     = 98,
 scale_burn_opt                      = 98,
 nta_chem_opt                        = 300,
 ndepvel                             = 30,
/
